[General]
scheduler-class = "inet::RealTimeScheduler"
sim-time-limit = 1000s
debug-on-errors = true

**.crcMode = "computed"
**.fcsMode = "computed"

*.visualizer.*.interfaceTableVisualizer.displayInterfaceTables = true
*.visualizer.*.interfaceTableVisualizer.nodeFilter = "not switch"
#*.visualizer.*.routingTableVisualizer.displayRoutingTables = true

[Config TestPing]
network = TapNetPing

*.host.numExtInterfaces = 1

*.host.ext[0].typename = "TapInterface"
*.host.ext[0].tap.device = "tap10"

*.configurator.config = xmldoc("TapNetPing.xml")

[Config TestPingSwitch]
network = TapNetPingSwitch

*.switch.numExtInterfaces = 1

*.switch.ext[0].typename = "TapInterface"
*.switch.ext[0].tap.device = "tap10"

*.configurator.config = xmldoc("TapNetPingSwitch.xml")

